* Small-signal silicon switching diode model (1N4148-class).
.model D1N4148 D(IS=2.52n RS=0.568 N=1.752 CJO=4p VJ=0.5 M=0.4 TT=20n BV=100 IBV=100u)
